  
       XFOIL         Version 6.99
  
 Calculated polar for: NACA 0012                                       
  
 1 1 Reynolds number fixed          Mach number fixed         
  
 xtrf =   1.000 (top)        1.000 (bottom)  
 Mach =   0.000     Re =     0.000 e 6     Ncrit =   9.000
  
   alpha    CL        CD       CDp       CM     Top_Xtr  Bot_Xtr
  ------ -------- --------- --------- -------- -------- --------
   0.000   0.0000   0.00000  -0.00106  -0.0000   0.0000   0.0000
   3.000   0.3623   0.00000  -0.00107  -0.0042   0.0000   0.0000
   5.000   0.6034   0.00000  -0.00109  -0.0070   0.0000   0.0000
   8.000   0.9635   0.00000  -0.00114  -0.0111   0.0000   0.0000
  10.000   1.2022   0.00000  -0.00119  -0.0138   0.0000   0.0000
  13.000   1.5574   0.00000  -0.00128  -0.0176   0.0000   0.0000
  15.000   1.7919   0.00000  -0.00134  -0.0201   0.0000   0.0000
