  
       XFOIL         Version 6.99
  
 Calculated polar for: NACA 4412                                       
  
 1 1 Reynolds number fixed          Mach number fixed         
  
 xtrf =   1.000 (top)        1.000 (bottom)  
 Mach =   0.000     Re =     0.000 e 6     Ncrit =   9.000
  
   alpha    CL        CD       CDp       CM     Top_Xtr  Bot_Xtr
  ------ -------- --------- --------- -------- -------- --------
   0.000   0.5100   0.00000  -0.00108  -0.1113   0.0000   0.0000
   3.000   0.8715   0.00000  -0.00110  -0.1162   0.0000   0.0000
   5.000   1.1113   0.00000  -0.00113  -0.1196   0.0000   0.0000
   8.000   1.4683   0.00000  -0.00119  -0.1249   0.0000   0.0000
  10.000   1.7041   0.00000  -0.00125  -0.1285   0.0000   0.0000
  13.000   2.0539   0.00000  -0.00135  -0.1339   0.0000   0.0000
  15.000   2.2840   0.00000  -0.00143  -0.1376   0.0000   0.0000
